<configuration>
  <input>
    <net-file value="manhattan.net.xml"/>
    <route-files value="routes.rou.xml"/>
  </input>
  <time>
    <begin value="0"/>
    <end value="500"/>
  </time>
  <processing>
    <time-to-teleport value="-1"/>
  </processing>
  <report>
    <verbose value="true"/>
    <no-step-log value="false"/>
  </report>
</configuration>