<?xml version="1.0" encoding="UTF-8"?>

<!-- generated on 2026-02-07T18:48:58.324269+05:30 by Eclipse SUMO netgenerate 1.26.0
<netgenerateConfiguration xmlns:xsi="http://www.w3.org/2001/XMLSchema-instance" xsi:noNamespaceSchemaLocation="http://sumo.dlr.de/xsd/netgenerateConfiguration.xsd">

    <grid_network>
        <grid value="true"/>
        <grid.number value="5"/>
        <grid.length value="300"/>
    </grid_network>

    <output>
        <output-file value="manhattan.net.xml"/>
    </output>

    <building_defaults>
        <default.lanenumber value="4"/>
        <default.speed value="13.9"/>
    </building_defaults>

    <tls_building>
        <tls.guess value="true"/>
    </tls_building>

</netgenerateConfiguration>
-->

<net version="1.20" junctionCornerDetail="5" limitTurnSpeed="5.50" xmlns:xsi="http://www.w3.org/2001/XMLSchema-instance" xsi:noNamespaceSchemaLocation="http://sumo.dlr.de/xsd/net_file.xsd">

    <location netOffset="0.00,0.00" convBoundary="0.00,0.00,1200.00,1200.00" origBoundary="0.00,0.00,1200.00,1200.00" projParameter="!"/>

    <edge id=":A0_0" function="internal">
        <lane id=":A0_0_0" index="0" speed="12.92" length="38.71" shape="-11.20,12.80 -9.70,2.30 -5.20,-5.20 2.30,-9.70 12.80,-11.20"/>
        <lane id=":A0_0_1" index="1" speed="12.06" length="33.55" shape="-8.00,12.80 -6.70,3.70 -2.80,-2.80 3.70,-6.70 12.80,-8.00"/>
        <lane id=":A0_0_2" index="2" speed="11.12" length="28.38" shape="-4.80,12.80 -3.70,5.10 -0.40,-0.40 5.10,-3.70 12.80,-4.80"/>
        <lane id=":A0_0_3" index="3" speed="10.10" length="23.22" shape="-1.60,12.80 -0.70,6.50 2.00,2.00 6.50,-0.70 12.80,-1.60"/>
    </edge>
    <edge id=":A0_4" function="internal">
        <lane id=":A0_4_0" index="0" speed="3.90" length="2.58" shape="12.80,11.20 12.10,11.30 11.60,11.60 11.30,12.10 11.20,12.80"/>
        <lane id=":A0_4_1" index="1" speed="6.08" length="7.74" shape="12.80,8.00 10.70,8.30 9.20,9.20 8.30,10.70 8.00,12.80"/>
        <lane id=":A0_4_2" index="2" speed="7.66" length="12.90" shape="12.80,4.80 9.30,5.30 6.80,6.80 5.30,9.30 4.80,12.80"/>
        <lane id=":A0_4_3" index="3" speed="8.96" length="18.06" shape="12.80,1.60 7.90,2.30 4.40,4.40 2.30,7.90 1.60,12.80"/>
    </edge>
    <edge id=":A1_0" function="internal">
        <lane id=":A1_0_0" index="0" speed="13.90" length="33.60" shape="-11.20,316.80 -11.20,283.20"/>
        <lane id=":A1_0_1" index="1" speed="13.90" length="33.60" shape="-8.00,316.80 -8.00,283.20"/>
        <lane id=":A1_0_2" index="2" speed="13.90" length="33.60" shape="-4.80,316.80 -4.80,283.20"/>
        <lane id=":A1_0_3" index="3" speed="13.90" length="33.60" shape="-1.60,316.80 -1.60,283.20"/>
    </edge>
    <edge id=":A1_4" function="internal">
        <lane id=":A1_4_0" index="0" speed="11.84" length="5.85" shape="-1.60,316.80 -0.89,310.99"/>
        <lane id=":A1_4_1" index="1" speed="11.36" length="5.01" shape="-1.60,316.80 -0.89,311.84"/>
    </edge>
    <edge id=":A1_6" function="internal">
        <lane id=":A1_6_0" index="0" speed="3.65" length="1.44" shape="-1.60,316.80 -0.80,315.60"/>
    </edge>
    <edge id=":A1_20" function="internal">
        <lane id=":A1_20_0" index="0" speed="11.84" length="26.45" shape="-0.89,310.99 -0.45,307.35 3.00,300.60 8.75,296.55 16.80,295.20"/>
        <lane id=":A1_20_1" index="0" speed="11.36" length="24.66" shape="-0.89,311.84 -0.45,308.75 3.00,303.00 8.75,299.55 16.80,298.40"/>
    </edge>
    <edge id=":A1_21" function="internal">
        <lane id=":A1_21_0" index="0" speed="3.65" length="3.23" shape="-0.80,315.60 0.00,315.20 0.80,315.60 1.60,316.80"/>
    </edge>
    <edge id=":A1_7" function="internal">
        <lane id=":A1_7_0" index="0" speed="6.51" length="9.03" shape="16.80,311.20 14.35,311.55 12.60,312.60 11.55,314.35 11.20,316.80"/>
        <lane id=":A1_7_1" index="1" speed="8.00" length="14.19" shape="16.80,308.00 12.95,308.55 10.20,310.20 8.55,312.95 8.00,316.80"/>
        <lane id=":A1_7_2" index="2" speed="9.26" length="19.35" shape="16.80,304.80 11.55,305.55 7.80,307.80 5.55,311.55 4.80,316.80"/>
    </edge>
    <edge id=":A1_10" function="internal">
        <lane id=":A1_10_0" index="0" speed="11.84" length="32.30" shape="16.80,301.60 7.35,300.45 0.60,297.00 -3.45,291.25 -4.80,283.20"/>
        <lane id=":A1_10_1" index="1" speed="11.36" length="29.67" shape="16.80,301.60 8.75,300.45 3.00,297.00 -0.45,291.25 -1.60,283.20"/>
    </edge>
    <edge id=":A1_12" function="internal">
        <lane id=":A1_12_0" index="0" speed="3.65" length="2.34" shape="16.80,301.60 15.60,300.80 15.20,300.00"/>
    </edge>
    <edge id=":A1_22" function="internal">
        <lane id=":A1_22_0" index="0" speed="3.65" length="2.34" shape="15.20,300.00 15.60,299.20 16.80,298.40"/>
    </edge>
    <edge id=":A1_13" function="internal">
        <lane id=":A1_13_0" index="0" speed="6.51" length="9.03" shape="11.20,283.20 11.55,285.65 12.60,287.40 14.35,288.45 16.80,288.80"/>
        <lane id=":A1_13_1" index="1" speed="7.33" length="11.73" shape="11.20,283.20 11.55,287.05 12.60,289.80 14.35,291.45 16.80,292.00"/>
    </edge>
    <edge id=":A1_15" function="internal">
        <lane id=":A1_15_0" index="0" speed="13.90" length="33.60" shape="11.20,283.20 11.20,316.80"/>
        <lane id=":A1_15_1" index="1" speed="13.90" length="33.60" shape="8.00,283.20 8.00,316.80"/>
        <lane id=":A1_15_2" index="2" speed="13.90" length="33.60" shape="4.80,283.20 4.80,316.80"/>
        <lane id=":A1_15_3" index="3" speed="13.90" length="33.60" shape="1.60,283.20 1.60,316.80"/>
    </edge>
    <edge id=":A1_19" function="internal">
        <lane id=":A1_19_0" index="0" speed="3.65" length="1.44" shape="1.60,283.20 0.80,284.40"/>
    </edge>
    <edge id=":A1_23" function="internal">
        <lane id=":A1_23_0" index="0" speed="3.65" length="3.23" shape="0.80,284.40 0.00,284.80 -0.80,284.40 -1.60,283.20"/>
    </edge>
    <edge id=":A2_0" function="internal">
        <lane id=":A2_0_0" index="0" speed="13.90" length="33.60" shape="-11.20,616.80 -11.20,583.20"/>
        <lane id=":A2_0_1" index="1" speed="13.90" length="33.60" shape="-8.00,616.80 -8.00,583.20"/>
        <lane id=":A2_0_2" index="2" speed="13.90" length="33.60" shape="-4.80,616.80 -4.80,583.20"/>
        <lane id=":A2_0_3" index="3" speed="13.90" length="33.60" shape="-1.60,616.80 -1.60,583.20"/>
    </edge>
    <edge id=":A2_4" function="internal">
        <lane id=":A2_4_0" index="0" speed="11.84" length="5.85" shape="-1.60,616.80 -0.89,610.99"/>
        <lane id=":A2_4_1" index="1" speed="11.36" length="5.01" shape="-1.60,616.80 -0.89,611.84"/>
    </edge>
    <edge id=":A2_6" function="internal">
        <lane id=":A2_6_0" index="0" speed="3.65" length="1.44" shape="-1.60,616.80 -0.80,615.60"/>
    </edge>
    <edge id=":A2_20" function="internal">
        <lane id=":A2_20_0" index="0" speed="11.84" length="26.45" shape="-0.89,610.99 -0.45,607.35 3.00,600.60 8.75,596.55 16.80,595.20"/>
        <lane id=":A2_20_1" index="0" speed="11.36" length="24.66" shape="-0.89,611.84 -0.45,608.75 3.00,603.00 8.75,599.55 16.80,598.40"/>
    </edge>
    <edge id=":A2_21" function="internal">
        <lane id=":A2_21_0" index="0" speed="3.65" length="3.23" shape="-0.80,615.60 0.00,615.20 0.80,615.60 1.60,616.80"/>
    </edge>
    <edge id=":A2_7" function="internal">
        <lane id=":A2_7_0" index="0" speed="6.51" length="9.03" shape="16.80,611.20 14.35,611.55 12.60,612.60 11.55,614.35 11.20,616.80"/>
        <lane id=":A2_7_1" index="1" speed="8.00" length="14.19" shape="16.80,608.00 12.95,608.55 10.20,610.20 8.55,612.95 8.00,616.80"/>
        <lane id=":A2_7_2" index="2" speed="9.26" length="19.35" shape="16.80,604.80 11.55,605.55 7.80,607.80 5.55,611.55 4.80,616.80"/>
    </edge>
    <edge id=":A2_10" function="internal">
        <lane id=":A2_10_0" index="0" speed="11.84" length="32.30" shape="16.80,601.60 7.35,600.45 0.60,597.00 -3.45,591.25 -4.80,583.20"/>
        <lane id=":A2_10_1" index="1" speed="11.36" length="29.67" shape="16.80,601.60 8.75,600.45 3.00,597.00 -0.45,591.25 -1.60,583.20"/>
    </edge>
    <edge id=":A2_12" function="internal">
        <lane id=":A2_12_0" index="0" speed="3.65" length="2.34" shape="16.80,601.60 15.60,600.80 15.20,600.00"/>
    </edge>
    <edge id=":A2_22" function="internal">
        <lane id=":A2_22_0" index="0" speed="3.65" length="2.34" shape="15.20,600.00 15.60,599.20 16.80,598.40"/>
    </edge>
    <edge id=":A2_13" function="internal">
        <lane id=":A2_13_0" index="0" speed="6.51" length="9.03" shape="11.20,583.20 11.55,585.65 12.60,587.40 14.35,588.45 16.80,588.80"/>
        <lane id=":A2_13_1" index="1" speed="7.33" length="11.73" shape="11.20,583.20 11.55,587.05 12.60,589.80 14.35,591.45 16.80,592.00"/>
    </edge>
    <edge id=":A2_15" function="internal">
        <lane id=":A2_15_0" index="0" speed="13.90" length="33.60" shape="11.20,583.20 11.20,616.80"/>
        <lane id=":A2_15_1" index="1" speed="13.90" length="33.60" shape="8.00,583.20 8.00,616.80"/>
        <lane id=":A2_15_2" index="2" speed="13.90" length="33.60" shape="4.80,583.20 4.80,616.80"/>
        <lane id=":A2_15_3" index="3" speed="13.90" length="33.60" shape="1.60,583.20 1.60,616.80"/>
    </edge>
    <edge id=":A2_19" function="internal">
        <lane id=":A2_19_0" index="0" speed="3.65" length="1.44" shape="1.60,583.20 0.80,584.40"/>
    </edge>
    <edge id=":A2_23" function="internal">
        <lane id=":A2_23_0" index="0" speed="3.65" length="3.23" shape="0.80,584.40 0.00,584.80 -0.80,584.40 -1.60,583.20"/>
    </edge>
    <edge id=":A3_0" function="internal">
        <lane id=":A3_0_0" index="0" speed="13.90" length="33.60" shape="-11.20,916.80 -11.20,883.20"/>
        <lane id=":A3_0_1" index="1" speed="13.90" length="33.60" shape="-8.00,916.80 -8.00,883.20"/>
        <lane id=":A3_0_2" index="2" speed="13.90" length="33.60" shape="-4.80,916.80 -4.80,883.20"/>
        <lane id=":A3_0_3" index="3" speed="13.90" length="33.60" shape="-1.60,916.80 -1.60,883.20"/>
    </edge>
    <edge id=":A3_4" function="internal">
        <lane id=":A3_4_0" index="0" speed="11.84" length="5.85" shape="-1.60,916.80 -0.89,910.99"/>
        <lane id=":A3_4_1" index="1" speed="11.36" length="5.01" shape="-1.60,916.80 -0.89,911.84"/>
    </edge>
    <edge id=":A3_6" function="internal">
        <lane id=":A3_6_0" index="0" speed="3.65" length="1.44" shape="-1.60,916.80 -0.80,915.60"/>
    </edge>
    <edge id=":A3_20" function="internal">
        <lane id=":A3_20_0" index="0" speed="11.84" length="26.45" shape="-0.89,910.99 -0.45,907.35 3.00,900.60 8.75,896.55 16.80,895.20"/>
        <lane id=":A3_20_1" index="0" speed="11.36" length="24.66" shape="-0.89,911.84 -0.45,908.75 3.00,903.00 8.75,899.55 16.80,898.40"/>
    </edge>
    <edge id=":A3_21" function="internal">
        <lane id=":A3_21_0" index="0" speed="3.65" length="3.23" shape="-0.80,915.60 0.00,915.20 0.80,915.60 1.60,916.80"/>
    </edge>
    <edge id=":A3_7" function="internal">
        <lane id=":A3_7_0" index="0" speed="6.51" length="9.03" shape="16.80,911.20 14.35,911.55 12.60,912.60 11.55,914.35 11.20,916.80"/>
        <lane id=":A3_7_1" index="1" speed="8.00" length="14.19" shape="16.80,908.00 12.95,908.55 10.20,910.20 8.55,912.95 8.00,916.80"/>
        <lane id=":A3_7_2" index="2" speed="9.26" length="19.35" shape="16.80,904.80 11.55,905.55 7.80,907.80 5.55,911.55 4.80,916.80"/>
    </edge>
    <edge id=":A3_10" function="internal">
        <lane id=":A3_10_0" index="0" speed="11.84" length="32.30" shape="16.80,901.60 7.35,900.45 0.60,897.00 -3.45,891.25 -4.80,883.20"/>
        <lane id=":A3_10_1" index="1" speed="11.36" length="29.67" shape="16.80,901.60 8.75,900.45 3.00,897.00 -0.45,891.25 -1.60,883.20"/>
    </edge>
    <edge id=":A3_12" function="internal">
        <lane id=":A3_12_0" index="0" speed="3.65" length="2.34" shape="16.80,901.60 15.60,900.80 15.20,900.00"/>
    </edge>
    <edge id=":A3_22" function="internal">
        <lane id=":A3_22_0" index="0" speed="3.65" length="2.34" shape="15.20,900.00 15.60,899.20 16.80,898.40"/>
    </edge>
    <edge id=":A3_13" function="internal">
        <lane id=":A3_13_0" index="0" speed="6.51" length="9.03" shape="11.20,883.20 11.55,885.65 12.60,887.40 14.35,888.45 16.80,888.80"/>
        <lane id=":A3_13_1" index="1" speed="7.33" length="11.73" shape="11.20,883.20 11.55,887.05 12.60,889.80 14.35,891.45 16.80,892.00"/>
    </edge>
    <edge id=":A3_15" function="internal">
        <lane id=":A3_15_0" index="0" speed="13.90" length="33.60" shape="11.20,883.20 11.20,916.80"/>
        <lane id=":A3_15_1" index="1" speed="13.90" length="33.60" shape="8.00,883.20 8.00,916.80"/>
        <lane id=":A3_15_2" index="2" speed="13.90" length="33.60" shape="4.80,883.20 4.80,916.80"/>
        <lane id=":A3_15_3" index="3" speed="13.90" length="33.60" shape="1.60,883.20 1.60,916.80"/>
    </edge>
    <edge id=":A3_19" function="internal">
        <lane id=":A3_19_0" index="0" speed="3.65" length="1.44" shape="1.60,883.20 0.80,884.40"/>
    </edge>
    <edge id=":A3_23" function="internal">
        <lane id=":A3_23_0" index="0" speed="3.65" length="3.23" shape="0.80,884.40 0.00,884.80 -0.80,884.40 -1.60,883.20"/>
    </edge>
    <edge id=":A4_0" function="internal">
        <lane id=":A4_0_0" index="0" speed="12.92" length="38.71" shape="12.80,1211.20 2.30,1209.70 -5.20,1205.20 -9.70,1197.70 -11.20,1187.20"/>
        <lane id=":A4_0_1" index="1" speed="12.06" length="33.55" shape="12.80,1208.00 3.70,1206.70 -2.80,1202.80 -6.70,1196.30 -8.00,1187.20"/>
        <lane id=":A4_0_2" index="2" speed="11.12" length="28.38" shape="12.80,1204.80 5.10,1203.70 -0.40,1200.40 -3.70,1194.90 -4.80,1187.20"/>
        <lane id=":A4_0_3" index="3" speed="10.10" length="23.22" shape="12.80,1201.60 6.50,1200.70 2.00,1198.00 -0.70,1193.50 -1.60,1187.20"/>
    </edge>
    <edge id=":A4_4" function="internal">
        <lane id=":A4_4_0" index="0" speed="3.90" length="2.58" shape="11.20,1187.20 11.30,1187.90 11.60,1188.40 12.10,1188.70 12.80,1188.80"/>
        <lane id=":A4_4_1" index="1" speed="6.08" length="7.74" shape="8.00,1187.20 8.30,1189.30 9.20,1190.80 10.70,1191.70 12.80,1192.00"/>
        <lane id=":A4_4_2" index="2" speed="7.66" length="12.90" shape="4.80,1187.20 5.30,1190.70 6.80,1193.20 9.30,1194.70 12.80,1195.20"/>
        <lane id=":A4_4_3" index="3" speed="8.96" length="18.06" shape="1.60,1187.20 2.30,1192.10 4.40,1195.60 7.90,1197.70 12.80,1198.40"/>
    </edge>
    <edge id=":B0_0" function="internal">
        <lane id=":B0_0_0" index="0" speed="6.51" length="9.03" shape="288.80,16.80 288.45,14.35 287.40,12.60 285.65,11.55 283.20,11.20"/>
        <lane id=":B0_0_1" index="1" speed="8.00" length="14.19" shape="292.00,16.80 291.45,12.95 289.80,10.20 287.05,8.55 283.20,8.00"/>
        <lane id=":B0_0_2" index="2" speed="9.26" length="19.35" shape="295.20,16.80 294.45,11.55 292.20,7.80 288.45,5.55 283.20,4.80"/>
    </edge>
    <edge id=":B0_3" function="internal">
        <lane id=":B0_3_0" index="0" speed="11.84" length="32.30" shape="298.40,16.80 299.55,7.35 303.00,0.60 308.75,-3.45 316.80,-4.80"/>
        <lane id=":B0_3_1" index="1" speed="11.36" length="29.67" shape="298.40,16.80 299.55,8.75 303.00,3.00 308.75,-0.45 316.80,-1.60"/>
    </edge>
    <edge id=":B0_5" function="internal">
        <lane id=":B0_5_0" index="0" speed="3.65" length="2.34" shape="298.40,16.80 299.20,15.60 300.00,15.20"/>
    </edge>
    <edge id=":B0_20" function="internal">
        <lane id=":B0_20_0" index="0" speed="3.65" length="2.34" shape="300.00,15.20 300.80,15.60 301.60,16.80"/>
    </edge>
    <edge id=":B0_6" function="internal">
        <lane id=":B0_6_0" index="0" speed="6.51" length="9.03" shape="316.80,11.20 314.35,11.55 312.60,12.60 311.55,14.35 311.20,16.80"/>
        <lane id=":B0_6_1" index="1" speed="7.33" length="11.73" shape="316.80,11.20 312.95,11.55 310.20,12.60 308.55,14.35 308.00,16.80"/>
    </edge>
    <edge id=":B0_8" function="internal">
        <lane id=":B0_8_0" index="0" speed="13.90" length="33.60" shape="316.80,11.20 283.20,11.20"/>
        <lane id=":B0_8_1" index="1" speed="13.90" length="33.60" shape="316.80,8.00 283.20,8.00"/>
        <lane id=":B0_8_2" index="2" speed="13.90" length="33.60" shape="316.80,4.80 283.20,4.80"/>
        <lane id=":B0_8_3" index="3" speed="13.90" length="33.60" shape="316.80,1.60 283.20,1.60"/>
    </edge>
    <edge id=":B0_12" function="internal">
        <lane id=":B0_12_0" index="0" speed="3.65" length="1.44" shape="316.80,1.60 315.60,0.80"/>
    </edge>
    <edge id=":B0_21" function="internal">
        <lane id=":B0_21_0" index="0" speed="3.65" length="3.23" shape="315.60,0.80 315.20,0.00 315.60,-0.80 316.80,-1.60"/>
    </edge>
    <edge id=":B0_13" function="internal">
        <lane id=":B0_13_0" index="0" speed="13.90" length="33.60" shape="283.20,-11.20 316.80,-11.20"/>
        <lane id=":B0_13_1" index="1" speed="13.90" length="33.60" shape="283.20,-8.00 316.80,-8.00"/>
        <lane id=":B0_13_2" index="2" speed="13.90" length="33.60" shape="283.20,-4.80 316.80,-4.80"/>
        <lane id=":B0_13_3" index="3" speed="13.90" length="33.60" shape="283.20,-1.60 316.80,-1.60"/>
    </edge>
    <edge id=":B0_17" function="internal">
        <lane id=":B0_17_0" index="0" speed="11.84" length="5.85" shape="283.20,-1.60 289.01,-0.89"/>
        <lane id=":B0_17_1" index="1" speed="11.36" length="5.01" shape="283.20,-1.60 288.16,-0.89"/>
    </edge>
    <edge id=":B0_19" function="internal">
        <lane id=":B0_19_0" index="0" speed="3.65" length="1.44" shape="283.20,-1.60 284.40,-0.80"/>
    </edge>
    <edge id=":B0_22" function="internal">
        <lane id=":B0_22_0" index="0" speed="11.84" length="26.45" shape="289.01,-0.89 292.65,-0.45 299.40,3.00 303.45,8.75 304.80,16.80"/>
        <lane id=":B0_22_1" index="0" speed="11.36" length="24.66" shape="288.16,-0.89 291.25,-0.45 297.00,3.00 300.45,8.75 301.60,16.80"/>
    </edge>
    <edge id=":B0_23" function="internal">
        <lane id=":B0_23_0" index="0" speed="3.65" length="3.23" shape="284.40,-0.80 284.80,0.00 284.40,0.80 283.20,1.60"/>
    </edge>
    <edge id=":B1_0" function="internal">
        <lane id=":B1_0_0" index="0" speed="6.51" length="9.03" shape="288.80,316.80 288.45,314.35 287.40,312.60 285.65,311.55 283.20,311.20"/>
    </edge>
    <edge id=":B1_1" function="internal">
        <lane id=":B1_1_0" index="0" speed="13.90" length="33.60" shape="288.80,316.80 288.80,283.20"/>
        <lane id=":B1_1_1" index="1" speed="13.90" length="33.60" shape="292.00,316.80 292.00,283.20"/>
        <lane id=":B1_1_2" index="2" speed="13.90" length="33.60" shape="295.20,316.80 295.20,283.20"/>
        <lane id=":B1_1_3" index="3" speed="13.90" length="33.60" shape="298.40,316.80 298.40,283.20"/>
    </edge>
    <edge id=":B1_5" function="internal">
        <lane id=":B1_5_0" index="0" speed="11.36" length="5.01" shape="298.40,316.80 299.11,311.84"/>
    </edge>
    <edge id=":B1_6" function="internal">
        <lane id=":B1_6_0" index="0" speed="3.65" length="1.44" shape="298.40,316.80 299.20,315.60"/>
    </edge>
    <edge id=":B1_28" function="internal">
        <lane id=":B1_28_0" index="0" speed="11.36" length="24.66" shape="299.11,311.84 299.55,308.75 303.00,303.00 308.75,299.55 316.80,298.40"/>
    </edge>
    <edge id=":B1_29" function="internal">
        <lane id=":B1_29_0" index="0" speed="3.65" length="3.23" shape="299.20,315.60 300.00,315.20 300.80,315.60 301.60,316.80"/>
    </edge>
    <edge id=":B1_7" function="internal">
        <lane id=":B1_7_0" index="0" speed="6.51" length="9.03" shape="316.80,311.20 314.35,311.55 312.60,312.60 311.55,314.35 311.20,316.80"/>
    </edge>
    <edge id=":B1_8" function="internal">
        <lane id=":B1_8_0" index="0" speed="13.90" length="33.60" shape="316.80,311.20 283.20,311.20"/>
        <lane id=":B1_8_1" index="1" speed="13.90" length="33.60" shape="316.80,308.00 283.20,308.00"/>
        <lane id=":B1_8_2" index="2" speed="13.90" length="33.60" shape="316.80,304.80 283.20,304.80"/>
        <lane id=":B1_8_3" index="3" speed="13.90" length="33.60" shape="316.80,301.60 283.20,301.60"/>
    </edge>
    <edge id=":B1_12" function="internal">
        <lane id=":B1_12_0" index="0" speed="11.36" length="5.01" shape="316.80,301.60 311.84,300.89"/>
    </edge>
    <edge id=":B1_13" function="internal">
        <lane id=":B1_13_0" index="0" speed="3.65" length="1.44" shape="316.80,301.60 315.60,300.80"/>
    </edge>
    <edge id=":B1_30" function="internal">
        <lane id=":B1_30_0" index="0" speed="11.36" length="24.66" shape="311.84,300.89 308.75,300.45 303.00,297.00 299.55,291.25 298.40,283.20"/>
    </edge>
    <edge id=":B1_31" function="internal">
        <lane id=":B1_31_0" index="0" speed="3.65" length="3.23" shape="315.60,300.80 315.20,300.00 315.60,299.20 316.80,298.40"/>
    </edge>
    <edge id=":B1_14" function="internal">
        <lane id=":B1_14_0" index="0" speed="6.51" length="9.03" shape="311.20,283.20 311.55,285.65 312.60,287.40 314.35,288.45 316.80,288.80"/>
    </edge>
    <edge id=":B1_15" function="internal">
        <lane id=":B1_15_0" index="0" speed="13.90" length="33.60" shape="311.20,283.20 311.20,316.80"/>
        <lane id=":B1_15_1" index="1" speed="13.90" length="33.60" shape="308.00,283.20 308.00,316.80"/>
        <lane id=":B1_15_2" index="2" speed="13.90" length="33.60" shape="304.80,283.20 304.80,316.80"/>
        <lane id=":B1_15_3" index="3" speed="13.90" length="33.60" shape="301.60,283.20 301.60,316.80"/>
    </edge>
    <edge id=":B1_19" function="internal">
        <lane id=":B1_19_0" index="0" speed="11.36" length="5.01" shape="301.60,283.20 300.89,288.16"/>
    </edge>
    <edge id=":B1_20" function="internal">
        <lane id=":B1_20_0" index="0" speed="3.65" length="1.44" shape="301.60,283.20 300.80,284.40"/>
    </edge>
    <edge id=":B1_32" function="internal">
        <lane id=":B1_32_0" index="0" speed="11.36" length="24.66" shape="300.89,288.16 300.45,291.25 297.00,297.00 291.25,300.45 283.20,301.60"/>
    </edge>
    <edge id=":B1_33" function="internal">
        <lane id=":B1_33_0" index="0" speed="3.65" length="3.23" shape="300.80,284.40 300.00,284.80 299.20,284.40 298.40,283.20"/>
    </edge>
    <edge id=":B1_21" function="internal">
        <lane id=":B1_21_0" index="0" speed="6.51" length="9.03" shape="283.20,288.80 285.65,288.45 287.40,287.40 288.45,285.65 288.80,283.20"/>
    </edge>
    <edge id=":B1_22" function="internal">
        <lane id=":B1_22_0" index="0" speed="13.90" length="33.60" shape="283.20,288.80 316.80,288.80"/>
        <lane id=":B1_22_1" index="1" speed="13.90" length="33.60" shape="283.20,292.00 316.80,292.00"/>
        <lane id=":B1_22_2" index="2" speed="13.90" length="33.60" shape="283.20,295.20 316.80,295.20"/>
        <lane id=":B1_22_3" index="3" speed="13.90" length="33.60" shape="283.20,298.40 316.80,298.40"/>
    </edge>
    <edge id=":B1_26" function="internal">
        <lane id=":B1_26_0" index="0" speed="11.36" length="5.01" shape="283.20,298.40 288.16,299.11"/>
    </edge>
    <edge id=":B1_27" function="internal">
        <lane id=":B1_27_0" index="0" speed="3.65" length="1.44" shape="283.20,298.40 284.40,299.20"/>
    </edge>
    <edge id=":B1_34" function="internal">
        <lane id=":B1_34_0" index="0" speed="11.36" length="24.66" shape="288.16,299.11 291.25,299.55 297.00,303.00 300.45,308.75 301.60,316.80"/>
    </edge>
    <edge id=":B1_35" function="internal">
        <lane id=":B1_35_0" index="0" speed="3.65" length="3.23" shape="284.40,299.20 284.80,300.00 284.40,300.80 283.20,301.60"/>
    </edge>
    <edge id=":B2_0" function="internal">
        <lane id=":B2_0_0" index="0" speed="6.51" length="9.03" shape="288.80,616.80 288.45,614.35 287.40,612.60 285.65,611.55 283.20,611.20"/>
    </edge>
    <edge id=":B2_1" function="internal">
        <lane id=":B2_1_0" index="0" speed="13.90" length="33.60" shape="288.80,616.80 288.80,583.20"/>
        <lane id=":B2_1_1" index="1" speed="13.90" length="33.60" shape="292.00,616.80 292.00,583.20"/>
        <lane id=":B2_1_2" index="2" speed="13.90" length="33.60" shape="295.20,616.80 295.20,583.20"/>
        <lane id=":B2_1_3" index="3" speed="13.90" length="33.60" shape="298.40,616.80 298.40,583.20"/>
    </edge>
    <edge id=":B2_5" function="internal">
        <lane id=":B2_5_0" index="0" speed="11.36" length="5.01" shape="298.40,616.80 299.11,611.84"/>
    </edge>
    <edge id=":B2_6" function="internal">
        <lane id=":B2_6_0" index="0" speed="3.65" length="1.44" shape="298.40,616.80 299.20,615.60"/>
    </edge>
    <edge id=":B2_28" function="internal">
        <lane id=":B2_28_0" index="0" speed="11.36" length="24.66" shape="299.11,611.84 299.55,608.75 303.00,603.00 308.75,599.55 316.80,598.40"/>
    </edge>
    <edge id=":B2_29" function="internal">
        <lane id=":B2_29_0" index="0" speed="3.65" length="3.23" shape="299.20,615.60 300.00,615.20 300.80,615.60 301.60,616.80"/>
    </edge>
    <edge id=":B2_7" function="internal">
        <lane id=":B2_7_0" index="0" speed="6.51" length="9.03" shape="316.80,611.20 314.35,611.55 312.60,612.60 311.55,614.35 311.20,616.80"/>
    </edge>
    <edge id=":B2_8" function="internal">
        <lane id=":B2_8_0" index="0" speed="13.90" length="33.60" shape="316.80,611.20 283.20,611.20"/>
        <lane id=":B2_8_1" index="1" speed="13.90" length="33.60" shape="316.80,608.00 283.20,608.00"/>
        <lane id=":B2_8_2" index="2" speed="13.90" length="33.60" shape="316.80,604.80 283.20,604.80"/>
        <lane id=":B2_8_3" index="3" speed="13.90" length="33.60" shape="316.80,601.60 283.20,601.60"/>
    </edge>
    <edge id=":B2_12" function="internal">
        <lane id=":B2_12_0" index="0" speed="11.36" length="5.01" shape="316.80,601.60 311.84,600.89"/>
    </edge>
    <edge id=":B2_13" function="internal">
        <lane id=":B2_13_0" index="0" speed="3.65" length="1.44" shape="316.80,601.60 315.60,600.80"/>
    </edge>
    <edge id=":B2_30" function="internal">
        <lane id=":B2_30_0" index="0" speed="11.36" length="24.66" shape="311.84,600.89 308.75,600.45 303.00,597.00 299.55,591.25 298.40,583.20"/>
    </edge>
    <edge id=":B2_31" function="internal">
        <lane id=":B2_31_0" index="0" speed="3.65" length="3.23" shape="315.60,600.80 315.20,600.00 315.60,599.20 316.80,598.40"/>
    </edge>
    <edge id=":B2_14" function="internal">
        <lane id=":B2_14_0" index="0" speed="6.51" length="9.03" shape="311.20,583.20 311.55,585.65 312.60,587.40 314.35,588.45 316.80,588.80"/>
    </edge>
    <edge id=":B2_15" function="internal">
        <lane id=":B2_15_0" index="0" speed="13.90" length="33.60" shape="311.20,583.20 311.20,616.80"/>
        <lane id=":B2_15_1" index="1" speed="13.90" length="33.60" shape="308.00,583.20 308.00,616.80"/>
        <lane id=":B2_15_2" index="2" speed="13.90" length="33.60" shape="304.80,583.20 304.80,616.80"/>
        <lane id=":B2_15_3" index="3" speed="13.90" length="33.60" shape="301.60,583.20 301.60,616.80"/>
    </edge>
    <edge id=":B2_19" function="internal">
        <lane id=":B2_19_0" index="0" speed="11.36" length="5.01" shape="301.60,583.20 300.89,588.16"/>
    </edge>
    <edge id=":B2_20" function="internal">
        <lane id=":B2_20_0" index="0" speed="3.65" length="1.44" shape="301.60,583.20 300.80,584.40"/>
    </edge>
    <edge id=":B2_32" function="internal">
        <lane id=":B2_32_0" index="0" speed="11.36" length="24.66" shape="300.89,588.16 300.45,591.25 297.00,597.00 291.25,600.45 283.20,601.60"/>
    </edge>
    <edge id=":B2_33" function="internal">
        <lane id=":B2_33_0" index="0" speed="3.65" length="3.23" shape="300.80,584.40 300.00,584.80 299.20,584.40 298.40,583.20"/>
    </edge>
    <edge id=":B2_21" function="internal">
        <lane id=":B2_21_0" index="0" speed="6.51" length="9.03" shape="283.20,588.80 285.65,588.45 287.40,587.40 288.45,585.65 288.80,583.20"/>
    </edge>
    <edge id=":B2_22" function="internal">
        <lane id=":B2_22_0" index="0" speed="13.90" length="33.60" shape="283.20,588.80 316.80,588.80"/>
        <lane id=":B2_22_1" index="1" speed="13.90" length="33.60" shape="283.20,592.00 316.80,592.00"/>
        <lane id=":B2_22_2" index="2" speed="13.90" length="33.60" shape="283.20,595.20 316.80,595.20"/>
        <lane id=":B2_22_3" index="3" speed="13.90" length="33.60" shape="283.20,598.40 316.80,598.40"/>
    </edge>
    <edge id=":B2_26" function="internal">
        <lane id=":B2_26_0" index="0" speed="11.36" length="5.01" shape="283.20,598.40 288.16,599.11"/>
    </edge>
    <edge id=":B2_27" function="internal">
        <lane id=":B2_27_0" index="0" speed="3.65" length="1.44" shape="283.20,598.40 284.40,599.20"/>
    </edge>
    <edge id=":B2_34" function="internal">
        <lane id=":B2_34_0" index="0" speed="11.36" length="24.66" shape="288.16,599.11 291.25,599.55 297.00,603.00 300.45,608.75 301.60,616.80"/>
    </edge>
    <edge id=":B2_35" function="internal">
        <lane id=":B2_35_0" index="0" speed="3.65" length="3.23" shape="284.40,599.20 284.80,600.00 284.40,600.80 283.20,601.60"/>
    </edge>
    <edge id=":B3_0" function="internal">
        <lane id=":B3_0_0" index="0" speed="6.51" length="9.03" shape="288.80,916.80 288.45,914.35 287.40,912.60 285.65,911.55 283.20,911.20"/>
    </edge>
    <edge id=":B3_1" function="internal">
        <lane id=":B3_1_0" index="0" speed="13.90" length="33.60" shape="288.80,916.80 288.80,883.20"/>
        <lane id=":B3_1_1" index="1" speed="13.90" length="33.60" shape="292.00,916.80 292.00,883.20"/>
        <lane id=":B3_1_2" index="2" speed="13.90" length="33.60" shape="295.20,916.80 295.20,883.20"/>
        <lane id=":B3_1_3" index="3" speed="13.90" length="33.60" shape="298.40,916.80 298.40,883.20"/>
    </edge>
    <edge id=":B3_5" function="internal">
        <lane id=":B3_5_0" index="0" speed="11.36" length="5.01" shape="298.40,916.80 299.11,911.84"/>
    </edge>
    <edge id=":B3_6" function="internal">