<?xml version="1.0" encoding="UTF-8"?>
<routes>
    <!-- Vehicle type definition -->
    <vType id="car" accel="2.6" decel="4.5" sigma="0.5" length="5" maxSpeed="50"/>
    
    <!-- Routes definition -->
    <route id="route_ew" edges="A0A1 A1A2 A2A3 A3A4"/>
    <route id="route_ns" edges="A0B0 B0C0 C0D0 D0E0"/>
    <route id="route_we" edges="E4E3 E3E2 E2E1 E1E0"/>
    <route id="route_sn" edges="E0D0 D0C0 C0B0 B0A0"/>
    
    <!-- Vehicle flows -->
    <flow id="flow_ew" type="car" route="route_ew" begin="0" end="3600" probability="0.1"/>
    <flow id="flow_ns" type="car" route="route_ns" begin="0" end="3600" probability="0.1"/>
    <flow id="flow_we" type="car" route="route_we" begin="0" end="3600" probability="0.08"/>
    <flow id="flow_sn" type="car" route="route_sn" begin="0" end="3600" probability="0.08"/>
</routes>